[TITLE]


[JUNCTIONS]
;ID              	Elev        	Demand      	Pattern         
 J31             	215.5       	0           	constant        	;
 J27             	215         	0           	constant        	;
 J26             	207.3       	0           	constant        	;
 J24             	227.3       	0           	constant        	;
 J22             	228.7       	0           	constant        	;
 J186            	226         	0.01        	PATTERN         	;
 J005            	223.9       	0.01        	PATTERN         	;
 J3              	220.2       	0           	constant        	;
 J4              	220.2       	0           	constant        	;
 J2              	220.1       	0           	constant        	;
 J001            	217.7       	0.194       	PATTERN         	;
 J008            	224         	1.166       	PATTERN         	;
 J006            	215.1       	0.01        	PATTERN         	;
 J007            	221.1       	0.01        	PATTERN         	;
 J002            	224.4       	0.01        	PATTERN         	;
 J003            	224.1       	0.01        	PATTERN         	;
 J004            	223.2       	0.01        	PATTERN         	;
 J20             	220.1       	0           	constant        	;
 J40             	220.7       	0           	constant        	;
 J47             	225.9       	0           	constant        	;
 J36             	224.3       	0           	constant        	;
 J37             	223.7       	0           	constant        	;
 J73             	224.1       	0           	constant        	;
 J134            	213.2       	0.01        	PATTERN         	;
 J140            	217.9       	0           	constant        	;
 J5              	224.7       	0.01        	PATTERN         	;
 J30             	224.5       	0           	constant        	;
 J38             	223.9       	0           	constant        	;
 J41             	223.3       	0.01        	PATTERN         	;
 J44             	223.9       	0           	constant        	;
 J7              	217.7       	0.01        	PATTERN         	;
 J46             	217.8       	0.01        	PATTERN         	;
 J50             	217.1       	0           	constant        	;
 J100            	216.7       	0           	constant        	;
 J129            	216.6       	0           	constant        	;
 J135            	218.8       	0.01        	PATTERN         	;
 J136            	217         	0.01        	PATTERN         	;
 J141            	217         	0.01        	PATTERN         	;
 J142            	213.7       	0.01        	PATTERN         	;
 J143            	212.6       	0.01        	PATTERN         	;
 J144            	219.6       	0.01        	PATTERN         	;
 J138            	221.7       	0           	constant        	;
 J145            	216.8       	0           	constant        	;
 J146            	216.8       	0           	constant        	;
 J147            	216.1       	0           	constant        	;
 J148            	214.9       	0           	constant        	;
 J150            	215.6       	0           	constant        	;
 J139            	227.7       	0           	constant        	;
 J151            	221.4       	0.01        	PATTERN         	;
 J152            	222         	0           	constant        	;
 J153            	219.7       	0.01        	PATTERN         	;
 J155            	216.7       	0.194       	PATTERN         	;
 J156            	214.1       	0           	constant        	;
 J157            	216.3       	0           	constant        	;
 J84             	220.4       	1.166       	PATTERN         	;
 J85             	220.1       	0.777       	PATTERN         	;
 J90             	217.2       	0.194       	PATTERN         	;
 J91             	214.4       	0.35        	PATTERN         	;
 J13             	213.8       	1.166       	PATTERN         	;
 J14             	211.8       	0.777       	PATTERN         	;
 J15             	210.7       	1.399       	PATTERN         	;
 J74             	204.6       	0.194       	PATTERN         	;
 J75             	224.9       	0.971       	PATTERN         	;
 J76             	222.4       	0.971       	PATTERN         	;
 J78             	221.9       	0.971       	PATTERN         	;
 J69             	222.5       	0           	constant        	;
 J70             	225.3       	0           	constant        	;
 J79             	224.5       	0           	constant        	;
 J80             	221.3       	0           	constant        	;
 J81             	221         	0           	constant        	;
 J82             	220.7       	0           	constant        	;
 J83             	220.6       	0           	constant        	;
 J86             	218         	0           	constant        	;
 J87             	214.5       	0           	constant        	;
 J88             	212.5       	0           	constant        	;
 J89             	210.8       	0           	constant        	;
 J93             	207.6       	0           	constant        	;
 J94             	207.6       	0           	constant        	;
 J71             	224.3       	1.166       	PATTERN         	;
 J95             	225.7       	1.166       	PATTERN         	;
 J96             	226.5       	1.554       	PATTERN         	;
 J97             	221         	0           	constant        	;
 J98             	223.4       	0           	constant        	;
 J99             	225.7       	0           	constant        	;
 J154            	223.8       	0           	constant        	;
 J101            	223.3       	0           	constant        	;
 J160            	224.5       	0           	constant        	;
 J8              	227.6       	0.777       	PATTERN         	;
 J9              	228.2       	0.777       	PATTERN         	;
 J10             	226.9       	1.166       	PATTERN         	;
 J11             	229.2       	2.914       	PATTERN         	;
 J12             	228.4       	1.943       	PATTERN         	;
 J39             	229.5       	0.777       	PATTERN         	;
 J43             	226.9       	0.019       	PATTERN         	;
 J48             	227.2       	0.777       	PATTERN         	;
 J49             	226.6       	0.777       	PATTERN         	;
 J51             	226.6       	1.166       	PATTERN         	;
 J52             	224.3       	1.554       	PATTERN         	;
 J53             	226.5       	1.554       	PATTERN         	;
 J54             	225.7       	0.777       	PATTERN         	;
 J55             	223         	2.448       	PATTERN         	;
 J56             	218.7       	1.166       	PATTERN         	;
 J57             	218.2       	0.777       	PATTERN         	;
 J58             	217.6       	0.777       	PATTERN         	;
 J59             	221.5       	1.166       	PATTERN         	;
 J60             	218.9       	0           	constant        	;
 J61             	218.6       	0           	constant        	;
 J62             	219         	0           	constant        	;
 J63             	217.7       	0           	constant        	;
 J64             	226.8       	0.777       	PATTERN         	;
 J65             	227.2       	0.777       	PATTERN         	;
 J66             	229.1       	1.166       	PATTERN         	;
 J67             	228         	1.166       	PATTERN         	;
 J68             	226.9       	1.166       	PATTERN         	;
 J72             	226.5       	0.699       	PATTERN         	;
 J77             	228.8       	1.166       	PATTERN         	;
 J102            	226.1       	0.389       	PATTERN         	;
 J103            	225.9       	0.194       	PATTERN         	;
 J104            	225.7       	0.486       	PATTERN         	;
 J105            	226.5       	0.777       	PATTERN         	;
 J107            	227.1       	0.777       	PATTERN         	;
 J108            	220.9       	0           	constant        	;
 J109            	224.4       	0           	constant        	;
 J110            	225.7       	0           	constant        	;
 J111            	220.6       	0           	constant        	;
 J112            	223.8       	0           	constant        	;
 J113            	226.3       	0           	constant        	;
 J114            	226         	0           	constant        	;
 J115            	227         	0           	constant        	;
 J116            	226.3       	0           	constant        	;
 J117            	222         	0           	constant        	;
 J118            	226.1       	0           	constant        	;
 J119            	227.2       	0           	constant        	;
 J121            	228.8       	1.554       	PATTERN         	;
 J106            	228.4       	0           	constant        	;
 J122            	227.2       	0           	constant        	;
 J123            	227.4       	0           	constant        	;
 J124            	227.6       	0           	constant        	;
 J125            	224.6       	0           	constant        	;
 J126            	226         	0           	constant        	;
 J127            	226.5       	0           	constant        	;
 J128            	226.9       	0           	constant        	;
 J130            	228         	0           	constant        	;
 J131            	227         	0           	constant        	;
 J132            	226.5       	0           	constant        	;
 J133            	226.6       	0           	constant        	;
 J161            	228.5       	0           	constant        	;
 J163            	227.5       	0           	constant        	;
 J164            	225.9       	0           	constant        	;
 J165            	224.6       	0           	constant        	;
 J167            	227.5       	0           	constant        	;
 J168            	228.3       	0           	constant        	;
 J169            	229.2       	0           	constant        	;
 J172            	228.6       	0           	constant        	;
 J173            	228.6       	0           	constant        	;
 J174            	227         	0           	constant        	;
 J175            	228.9       	0           	constant        	;
 J176            	224.6       	0           	constant        	;
 J166            	225.8       	0           	constant        	;
 J177            	227.3       	0           	constant        	;
 J178            	222.1       	0           	constant        	;
 J179            	224.3       	0.777       	PATTERN         	;
 J180            	226.4       	0.087       	PATTERN         	;
 J181            	225.8       	0.01        	PATTERN         	;
 J182            	225         	0.194       	PATTERN         	;
 J183            	226.1       	1.943       	PATTERN         	;
 J184            	226.6       	0.049       	PATTERN         	;
 J185            	225.5       	0.01        	PATTERN         	;
 J187            	226.4       	1.166       	PATTERN         	;
 J188            	226.9       	0.389       	PATTERN         	;
 J189            	226         	1.166       	PATTERN         	;
 J190            	228.9       	0.777       	PATTERN         	;
 J191            	228.3       	1.554       	PATTERN         	;
 J192            	228.2       	1.554       	PATTERN         	;
 J193            	227.6       	1.166       	PATTERN         	;
 J194            	212.5       	0.777       	PATTERN         	;
 J195            	211.7       	0.777       	PATTERN         	;
 J196            	211         	2.332       	PATTERN         	;
 J197            	211.3       	1.166       	PATTERN         	;
 J198            	210         	0           	constant        	;
 J199            	211.9       	0           	constant        	;
 J200            	211.6       	0           	constant        	;
 J201            	212.9       	0           	constant        	;
 J202            	211.4       	0           	constant        	;
 J203            	211.9       	0           	constant        	;
 J204            	210.4       	0           	constant        	;
 J205            	226.8       	0           	constant        	;
 J206            	227.4       	0           	constant        	;
 J207            	228.7       	0           	constant        	;
 J208            	227.6       	0           	constant        	;
 J209            	227.7       	0           	constant        	;
 J210            	226         	0           	constant        	;
 J211            	226.5       	0           	constant        	;
 J212            	227         	0           	constant        	;
 J213            	227         	0           	constant        	;
 J214            	225.9       	0           	constant        	;
 J215            	224.9       	0           	constant        	;
 J217            	226.5       	0           	constant        	;
 J219            	226.5       	0           	constant        	;
 J216            	226.5       	0           	constant        	;
 J220            	226.2       	0           	constant        	;
 J221            	223.9       	0           	constant        	;
 J222            	225.6       	0           	constant        	;
 J92             	226         	0           	constant        	;
 J6              	218         	0.01        	PATTERN         	;
 J120            	219.9       	0.777       	PATTERN         	;
 J149            	219.5       	0           	constant        	;
 J16             	220.3       	0           	constant        	;
 J17             	220.5       	0           	constant        	;
 J18             	220.4       	0           	constant        	;
 J19             	220.6       	0           	constant        	;
 J21             	220.5       	0           	constant        	;
 J1              	220.1       	0           	constant        	;
 J23             	225.7       	0           	constant        	;
 J25             	208.6       	0           	constant        	;
 J28             	217.2       	0           	constant        	;
 J29             	216.4       	0           	constant        	;

[RESERVOIRS]
;ID              	Head        	Pattern         
 R1              	217.8       	                	;

[TANKS]
;ID              	Elevation   	InitLevel   	MinLevel    	MaxLevel    	Diameter    	MinVol      	VolCurve        	Overflow

[PIPES]
;ID              	Node1           	Node2           	Length      	Diameter    	Roughness   	MinorLoss   	Status
 P161            	J215            	J176            	176.71      	150         	100         	0           	Open  	;
 P96             	J29             	J31             	99.37       	150         	100         	0           	Open  	;
 P71             	J86             	J31             	49.573065406	150         	100         	0           	Open  	;
 P71_2           	J31             	J27             	22.898565981	150         	100         	0           	Open  	;
 P57             	J157            	J29             	52.58       	150         	100         	0           	Open  	;
 P44             	J28             	J63             	27.15       	150         	100         	0           	Open  	;
 P43             	J27             	J28             	140.45      	150         	100         	0           	Open  	;
 P71_1           	J27             	J87             	14.585725965	150         	100         	0           	Open  	;
 P42_1           	J25             	J26             	200.72785684	150         	100         	0           	Open  	;
 P42_2           	J26             	J94             	61.128981312	150         	100         	0           	Open  	;
 P32             	J23             	J163            	115.95      	150         	100         	0           	Open  	;
 P21             	J175            	J24             	50.550391472	150         	100         	0           	Open  	;
 P21_1           	J24             	J23             	31.781488806	150         	100         	0           	Open  	;
 P17             	J133            	J22             	223.13      	150         	100         	0           	Open  	;
 P121            	J175            	J22             	26.753165378	150         	100         	0           	Open  	;
 P121_1          	J22             	J167            	23.581885439	150         	100         	0           	Open  	;
 P16             	J140            	J40             	173.54      	300         	100         	0           	Open  	;
 P20             	J2              	J1              	2.24        	100         	100         	0           	Open  	;
 P19             	J3              	J1              	2.17        	100         	100         	0           	Open  	;
 P12             	J21             	R1              	13.73       	100         	100         	0           	Open  	;
 P13             	J4              	J18             	1.39        	100         	100         	0           	Open  	;
 P2              	J20             	J16             	1.29        	100         	100         	0           	Open  	;
 P95             	J120            	J149            	34.11       	100         	100         	0           	Open  	;
 P5              	J97             	J149            	56.022178225	150         	100         	0           	Open  	;
 P5_1            	J149            	J60             	29.762569187	150         	100         	0           	Open  	;
 P93             	J101            	J160            	64.63       	150         	100         	0           	Open  	;
 P164            	J6              	J129            	18.88       	100         	100         	0           	Open  	;
 P209            	J186            	J92             	22.61       	100         	100         	0           	Open  	;
 P198            	J211            	J92             	49.204888529	150         	100         	0           	Open  	;
 P198_1          	J92             	J210            	29.128262217	150         	100         	0           	Open  	;
 P207            	J206            	J205            	51.85       	150         	100         	0           	Open  	;
 P200            	J206            	J210            	95          	150         	100         	0           	Open  	;
 P197            	J215            	J182            	46.87       	100         	100         	0           	Open  	;
 P196            	J214            	J215            	27.29       	150         	100         	0           	Open  	;
 P195            	J214            	J187            	14.72       	100         	100         	0           	Open  	;
 P194            	J213            	J214            	63.71       	150         	100         	0           	Open  	;
 P193            	J213            	J183            	44.42       	100         	100         	0           	Open  	;
 P192            	J212            	J213            	15.9        	150         	100         	0           	Open  	;
 P191            	J212            	J188            	10.38       	100         	100         	0           	Open  	;
 P190            	J211            	J212            	57.45       	150         	100         	0           	Open  	;
 P189            	J211            	J217            	44.6        	150         	100         	0           	Open  	;
 P188            	J219            	J217            	24.78       	150         	100         	0           	Open  	;
 P187            	J222            	J185            	17.79       	100         	100         	0           	Open  	;
 P186            	J30             	J222            	29.4251797  	150         	100         	0           	Open  	;
 P186_1          	J222            	J217            	17.957637568	150         	100         	0           	Open  	;
 P183            	J181            	J216            	17.37       	100         	100         	0           	Open  	;
 P157            	J127            	J216            	8.63        	150         	100         	0           	Open  	;
 P156            	J127            	J220            	28.4        	150         	100         	0           	Open  	;
 P155            	J220            	J180            	35.68       	100         	100         	0           	Open  	;
 P154            	J221            	J220            	70.06       	150         	100         	0           	Open  	;
 P153            	J221            	J179            	23.24       	100         	100         	0           	Open  	;
 P152            	J178            	J221            	46.33       	150         	100         	0           	Open  	;
 P151            	J205            	J193            	25.12       	100         	100         	0           	Open  	;
 P150            	J198            	J138            	414.34      	150         	100         	0           	Open  	;
 P149            	J198            	J199            	96.1        	150         	100         	0           	Open  	;
 P148            	J202            	J197            	14.85       	100         	100         	0           	Open  	;
 P147            	J199            	J202            	70.91       	150         	100         	0           	Open  	;
 P146            	J204            	J202            	27.2        	150         	100         	0           	Open  	;
 P145            	J204            	J196            	72.61       	100         	100         	0           	Open  	;
 P144            	J199            	J203            	17.03       	150         	100         	0           	Open  	;
 P143            	J195            	J203            	15.43       	100         	100         	0           	Open  	;
 P142            	J194            	J201            	12.62       	100         	100         	0           	Open  	;
 P141            	J200            	J201            	100.24      	150         	100         	0           	Open  	;
 P67             	J88             	J200            	42.39814753 	150         	100         	0           	Open  	;
 P67_1           	J200            	J89             	52.459478504	150         	100         	0           	Open  	;
 P113            	J166            	J177            	64.31       	150         	100         	0           	Open  	;
 P140            	J109            	J113            	81.9        	150         	100         	0           	Open  	;
 P139            	J113            	J51             	23.93       	100         	100         	0           	Open  	;
 P138            	J112            	J113            	84.77       	150         	100         	0           	Open  	;
 P137            	J112            	J54             	24.77       	100         	100         	0           	Open  	;
 P136            	J111            	J55             	30.18       	100         	100         	0           	Open  	;
 P135            	J112            	J111            	75.01       	150         	100         	0           	Open  	;
 P134            	J111            	J108            	55.43       	150         	100         	0           	Open  	;
 P133            	J154            	J108            	93.92       	150         	100         	0           	Open  	;
 P132            	J132            	J178            	96.4        	150         	100         	0           	Open  	;
 P131            	J39             	J126            	58.07       	150         	100         	0           	Open  	;
 P130            	J166            	J176            	45.48       	150         	100         	0           	Open  	;
 P129            	J105            	J166            	11.94       	100         	100         	0           	Open  	;
 P128            	J177            	J48             	6.27        	100         	100         	0           	Open  	;
 P106            	J176            	J122            	39.11       	150         	100         	0           	Open  	;
 P119            	J165            	J176            	72.325188649	150         	100         	0           	Open  	;
 P127            	J165            	J104            	43.54       	100         	100         	0           	Open  	;
 P126            	J169            	J11             	15.8        	100         	100         	0           	Open  	;
 P125            	J168            	J169            	43.43       	150         	100         	0           	Open  	;
 P124            	J168            	J12             	31.05       	100         	100         	0           	Open  	;
 P123            	J167            	J168            	65.89       	150         	100         	0           	Open  	;
 P120            	J167            	J165            	59.53       	150         	100         	0           	Open  	;
 P118            	J109            	J126            	58.62       	150         	100         	0           	Open  	;
 P117            	J114            	J109            	33.28       	150         	100         	0           	Open  	;
 P116            	J114            	J43             	18.66       	100         	100         	0           	Open  	;
 P112            	J125            	J52             	16.88       	100         	100         	0           	Open  	;
 P111            	J116            	J125            	56.28       	100         	100         	0           	Open  	;
 P110            	J123            	J116            	57.46       	150         	100         	0           	Open  	;
 P109            	J124            	J53             	14.31       	100         	100         	0           	Open  	;
 P108            	J124            	J123            	64.6        	100         	100         	0           	Open  	;
 P107            	J122            	J123            	55.41       	150         	100         	0           	Open  	;
 P105            	J122            	J102            	79.54       	100         	100         	0           	Open  	;
 P104            	J106            	J122            	69.3        	150         	100         	0           	Open  	;
 P103            	J106            	J121            	13.74       	100         	100         	0           	Open  	;
 P102            	J119            	J106            	116.08      	150         	100         	0           	Open  	;
 P101            	J118            	J119            	20.7        	150         	100         	0           	Open  	;
 P100            	J119            	J107            	13.67       	100         	100         	0           	Open  	;
 P62             	J117            	J118            	77.88       	150         	100         	0           	Open  	;
 P61             	J126            	J164            	69.73       	150         	100         	0           	Open  	;
 P60             	J164            	J110            	89.05       	150         	100         	0           	Open  	;
 P59             	J164            	J10             	26.97       	100         	100         	0           	Open  	;
 P58             	J163            	J8              	14.51       	100         	100         	0           	Open  	;
 P55             	J161            	J9              	14.44       	100         	100         	0           	Open  	;
 P54             	J110            	J161            	54.52       	150         	100         	0           	Open  	;
 P53             	J172            	J128            	76.8        	100         	100         	0           	Open  	;
 P52             	J174            	J131            	81.49       	100         	100         	0           	Open  	;
 P51             	J173            	J130            	79.39       	100         	100         	0           	Open  	;
 P49             	J174            	J68             	14.45       	100         	100         	0           	Open  	;
 P48             	J173            	J67             	19.97       	100         	100         	0           	Open  	;
 P46             	J172            	J66             	16.79       	100         	100         	0           	Open  	;
 P41             	J65             	J133            	8.63        	100         	100         	0           	Open  	;
 P39             	J132            	J133            	110.27      	150         	100         	0           	Open  	;
 P38             	J132            	J64             	9.1         	100         	100         	0           	Open  	;
 P91             	J69             	J117            	16.959122704	150         	100         	0           	Open  	;
 P91_1           	J117            	J101            	42.467448121	150         	100         	0           	Open  	;
 P37             	J56             	J62             	11.36       	100         	100         	0           	Open  	;
 P25             	J60             	J62             	41.41       	150         	100         	0           	Open  	;
 P24             	J63             	J58             	14.39       	100         	100         	0           	Open  	;
 P8              	J63             	J61             	78.05       	150         	100         	0           	Open  	;
 P7              	J57             	J61             	16.23       	100         	100         	0           	Open  	;
 P6              	J61             	J60             	26.37       	150         	100         	0           	Open  	;
 P3              	J97             	J59             	13.9        	100         	100         	0           	Open  	;
 P87             	J98             	J70             	67.52       	150         	100         	0           	Open  	;
 P86             	J71             	J98             	26.63       	100         	100         	0           	Open  	;
 P85             	J73             	J98             	73.25       	150         	100         	0           	Open  	;
 P84             	J82             	J81             	16.2        	150         	100         	0           	Open  	;
 P83             	J76             	J82             	33.74       	100         	100         	0           	Open  	;
 P81             	J85             	J83             	28.42       	100         	100         	0           	Open  	;
 P80             	J86             	J83             	111.7       	150         	100         	0           	Open  	;
 P79             	J82             	J83             	36.51       	150         	100         	0           	Open  	;
 P77             	J80             	J157            	79.66       	150         	100         	0           	Open  	;
 P76             	J80             	J78             	14.19       	100         	100         	0           	Open  	;
 P75             	J79             	J80             	69.49       	150         	100         	0           	Open  	;
 P74             	J79             	J75             	16.22       	100         	100         	0           	Open  	;
 P73             	J70             	J79             	67.14       	150         	100         	0           	Open  	;